trunk/Training/Virtual-2021/Session3/PVSystem_InvControl/ieee-1547_examples/dss_files/example6.dss
Clear

New Circuit.TheveninEquivalent bus1=A pu=1.0 basekv=13.8 
~ Z0=[0.00000001, 0.00000001] Z1=[0.00000001, 0.00000001]

New XYCurve.Eff npts=4 xarray=[.1 .2 .4 1.0] yarray=[1 1 1 1]

New XYCurve.FatorPvsT npts=4 xarray=[0 25 75 100] yarray=[1 1 1 1] 

New Loadshape.Irrad npts=24 interval=1 
~ mult=[0 0 0 0 0 0 .1 .2 .3 .5 .8 .85 0.93 0.93 .92 .9 .7 .4 .1 0 0 0 0 0]

New Tshape.Temp npts=24 interval=1 
~ temp=[25 25 25 25 25 25 25 25 25 25 25 25 25 25 25 25 25 25 25 25 25 25 25 25]

New PVSystem.PV phases=3 bus1=A kV=13.8 Pmpp=100 %pmpp=100 kVA=100 kvarmax=44 kvarmaxabs=44 %PminNoVars=5 %PminkvarMax=20 
~ conn=wye effcurve=Eff P-TCurve=FatorPvsT irradiance=1 daily=Irrad Tdaily=Temp wattpriority=no %cutin=0.001 %cutout=0.001

New XYcurve.generic npts=4 yarray=[1 1 0 0] xarray=[1 1.05 1.09 1.5]
New InvControl.VoltWatt mode=VOLTWATT voltage_curvex_ref=rated voltwatt_curve=generic VoltwattYAxis=PMPPPU activepchangetolerance=0.00001


set maxcontrolI=2000

Set voltagebases=[13.8]
Calcvoltagebases

set casename=example6

